# Dynamical comparison between continuum mechanics in MITgcm and
# Discrete model DESIgn fron A. Herman, described in Herman et al 2016
#
# Damien Ringeisen, 2016
#
# ====================
# | Model parameters |
# ====================
#
# Continuous equation parameters
#
#   tRef            - Reference vertical potential temperature          (deg C)
#   sRef            - Reference vertical salinity                         (PSU)
#   viscAh          - Horizontal eddy viscosity coefficient             (m^2/s)
#   viscAz          - Vertical eddy viscosity coefficient               (m^2/s)
#   diffKhT         - Horizontal temperature diffusivity                (m^2/s)
#   diffKzT         - Vertical temperature diffusivity                  (m^2/s)
#   diffKhS         - Horizontal salt diffusivity                       (m^2/s)
#   diffKzS         - Vertical salt diffusivity                         (m^2/s)
#   gravity         - Acceleration due to gravity                       (m/s^2)
#   rigidLid        - Set to true to use rigid lid
#   implicitFreeSurface - Set to true to use implicit free surface
#   eosType         - Flag for linear or polynomial equation of state
#   momAdvection    - On/Off flag for momentum self transport
#   momViscosity    - On/Off flag for momentum mixing
#   f0              - Coriolis parameters, set to 0 to ignore coriolis force
#   beta            - Coriolis parameters, set to 0 to ignore coriolis force
#
 &PARM01
 tRef= 24.0,
 sRef= 34.65,
 no_slip_sides=.FALSE.,
 no_slip_bottom=.TRUE.,
 viscAz=1.93e-5,
 viscAh=5.E4,
 diffKhT=0.0,
 diffKzT=1.46e-5,
 diffKhS=0.0,
 diffKzS=1.46e-5,
 rigidLid=.FALSE.,
 implicitFreeSurface=.TRUE.,
 eosType='JMD95Z',
 saltStepping=.FALSE.,
 tempStepping=.FALSE.,
 momStepping=.FALSE.,
 implicitDiffusion=.TRUE.,
 implicitViscosity=.TRUE.,
 allowFreezing=.FALSE.,
#- set wrong celsius2K to reproduce old results:
 celsius2K=273.16,
 HeatCapacity_Cp = 3986.D0,
 gravity         = 9.8156,
 rhoConst        = 1027.D0,
 rhoConstFresh   = 999.8,
 useSingleCpuIO=.TRUE.,
 readBinaryPrec=64,
 writeBinaryPrec=64,
 f0=0.,
 beta=0.,
 &

# Elliptic solver parameters
#
#   cg2dMaxIters       - Maximum number of 2d solver iterations
#   cg2dTargetResidual - Solver target residual
#
 &PARM02
 cg2dMaxIters=500,
 cg2dTargetResidual=1.E-12,
 &

# Time stepping parameters
#
#   startTime         - Integration starting time                (s)
#   endTime           - Integration ending time                  (s)
#   deltaTMom         - Timestep for momemtum equations          (s)
#   deltaTtracer      - Tracer timestep                          (s)
#   deltaTClock       - Timestep used as model "clock"           (s)
#   abEps             - Adams-Bashforth stabilising factor
#   pChkPtFreq        - Frequency of permanent check pointing    (s)
#   chkPtFreq         - Frequency of rolling check pointing      (s)
#   dumpFreq          - Frequency at which model state is stored (s)
#   tauThetaClimRelax - Relaxation to climatology time scale     (s)
#   tauSaltClimRelax  - Relaxation to climatology time scale     (s)
#
 &PARM03
# for testing use a short integration
 nIter0=0,
 nTimeSteps=10,
# this is for real experiments
#startTime=0.0,
#endTime=200,
 deltaT=0.1,
 cAdjFreq=0.,
 abEps=0.1,
 forcing_In_AB = .FALSE.,
# pChkptFreq=36000.,
# chkptFreq= 0.,
# dumpFreq = 360.,
 dumpInitAndLast=.FALSE.,
 monitorFreq=0.1,
 pickupStrictlyMatch=.FALSE.,
 &

# Gridding parameters
#
#   usingCartesianGrid      - On/Off flag for cartesian coordinates
#   delX                    - Zonal grid spacing         (m)
#   delY                    - Meridional grid spacing    (m)
#   delZ                    - Vertical grid spacing      (m)
#
 &PARM04
 usingCartesianGrid=.TRUE.,
 dXspacing=250.0,
 dYspacing=250.0,
 delZ= 200.,
 &

# Input datasets
#
#   bathyFile       - File containing bathymetry
#   hydrogThetaFile - File containing initial potential temperature data
#   hydrogSaltFile  - File containing initial salinity data
#   zonalWindFile   - File containing zonal wind data
#   meridWindFile   - File containing meridional wind data
#   thetaClimFile   - File containing theta climatology used for relaxation
#   saltClimFile    - File containing salt climatology used for relaxation
#
 &PARM05
 bathyFile       = 'bathy_DMcomp.bin',
 &
